
Circuit: tcfelab1

Doing analysis at TEMP = 27.000000 and TNOM = 27.000000


No. of Data Rows : 1
op_TAB
@gb[i] = -2.82647e-04
@id[current] = 1.016742e-03
@r1[i] = -2.69487e-04
@r2[i] = -2.82647e-04
@r3[i] = -1.31599e-05
@r4[i] = -1.17175e-03
@r5[i] = -1.29939e-03
@r6[i] = 9.022631e-04
@r7[i] = 9.022631e-04
v(1) = 7.795262e+00
v(2) = 7.515011e+00
v(3) = 6.927322e+00
v(4) = 2.756787e+00
v(5) = 7.555303e+00
v(6) = 1.145524e+01
v(7) = 9.222643e-01
cfp1 = 9.222643e-01
hc#branch = 1.144786e-04
vdumb#branch = 9.022631e-04
vin#branch = -2.69487e-04
op_END
Doing analysis at TEMP = 27.000000 and TNOM = 27.000000


No. of Data Rows : 1
	Node                                  Voltage
	----                                  -------
	----	-------
	V(5)                             7.555303e+00
	V(3)                             6.927322e+00
	V(2)                             7.515011e+00
	V(7)                             9.222643e-01
	cfp1                             9.222643e-01
	V(6)                             1.145524e+01
	V(4)                             2.756787e+00
	V(1)                             7.795262e+00

	Source	Current
	------	-------

	@gb[i]                           -2.82647e-04
	@r7[i]                           9.022631e-04
	@r6[i]                           9.022631e-04
	@r5[i]                           -1.29939e-03
	@r4[i]                           -1.17175e-03
	@r3[i]                           -1.31599e-05
	@r2[i]                           -2.82647e-04
	@r1[i]                           -2.69487e-04
	vin#branch                       -2.69487e-04
	vdumb#branch                     9.022631e-04
	hc#branch                        1.144786e-04

 Resistor models (Simple linear resistor)
      model                     R

        rsh                     0
     narrow                     0
      short                     0
        tc1                     0
        tc2                     0
        tce                     0
       defw                 1e-05
          l                 1e-05
         kf                     0
         af                     0
          r                     0
     bv_max                 1e+99
         lf                     1
         wf                     1
         ef                     1

 CCVS: Linear current controlled current source
     device                    hc
          i           0.000114479
          v                7.5553
          p            0.00086492

 Isource: Independent current source
     device                    id
         dc            0.00101674
          m                     1
      acmag                     0
      pulse         -
        sin         -
        exp         -
        pwl         -
       sffm         -
         am         -
    trnoise         -
   trrandom         -
          v               11.4552
          p             -0.011647
    current            0.00101674

 Resistor: Simple linear resistor
     device                    r7                    r6                    r5
      model                     R                     R                     R
 resistance               1022.17               2033.25               3001.36
         ac               1022.17               2033.25               3001.36
      dtemp                     0                     0                     0
     bv_max                 1e+99                 1e+99                 1e+99
      noisy                     1                     1                     1
          i           0.000902263           0.000902263           -0.00129939
          p           0.000832125            0.00165522            0.00506754

 Resistor: Simple linear resistor
     device                    r4                    r3                    r2
      model                     R                     R                     R
 resistance               4095.17               3061.69               2079.23
         ac               4095.17               3061.69               2079.23
      dtemp                     0                     0                     0
     bv_max                 1e+99                 1e+99                 1e+99
      noisy                     1                     1                     1
          i           -0.00117175          -1.31599e-05          -0.000282647
          p            0.00562266           5.30232e-07           0.000166108

 Resistor: Simple linear resistor
     device                    r1
      model                     R
 resistance               1039.94
         ac               1039.94
      dtemp                     0
     bv_max                 1e+99
      noisy                     1
          i          -0.000269487
          p           7.55241e-05

 VCCS: Voltage controlled current source
     device                    gb
          m                     0
          i          -0.000282647
          v               4.52792
          p            -0.0012798

 Vsource: Independent voltage source
     device                 vdumb                   vin
         dc                     0               5.03848
      acmag                     0                     0
      pulse         -         -
        sin         -         -
        exp         -         -
        pwl         -         -
       sffm         -         -
         am         -         -
    trnoise         -         -
   trrandom         -         -
          i           0.000902263          -0.000269487
          p                    -0             0.0013578


Total analysis time (seconds) = 0.001

Total elapsed time (seconds) = 0.196 

Total DRAM available = 15945.082 MB.
DRAM currently available = 7059.184 MB.
Total ngspice program size =   21.852 MB.
Resident set size =    9.723 MB.
Shared ngspice pages =    7.855 MB.
Text (code) pages =    5.070 MB.
Stack = 0 bytes.
Library pages =    2.109 MB.

