
Circuit: tcfelab2

Doing analysis at TEMP = 27.000000 and TNOM = 27.000000


No. of Data Rows : 1
op2_TAB
@gb[i] = 8.369438e-18
@r1[i] = 7.979758e-18
@r2[i] = -8.36944e-18
@r3[i] = 3.896799e-19
@r4[i] = -1.73508e-18
@r5[i] = -2.79994e-03
@r6[i] = 1.301043e-18
@r7[i] = 8.876953e-19
v(1) = 0.000000e+00
v(2) = 8.298505e-15
v(3) = 2.570053e-14
v(5) = 7.105427e-15
v(6) = 8.403629e+00
v(7) = -2.64534e-15
v(8) = -3.55271e-15
cfp1 = -2.64534e-15
hd#branch = 2.799936e-03
v2#branch = -2.79994e-03
vdumb#branch = 1.301043e-18
vs#branch = 7.979758e-18
op2_END
Doing analysis at TEMP = 27.000000 and TNOM = 27.000000


No. of Data Rows : 1
	Node                                  Voltage
	----                                  -------
	----	-------
	V(8)                             -3.55271e-15
	V(6)                             8.403629e+00
	V(5)                             7.105427e-15
	V(3)                             2.570053e-14
	V(1)                             0.000000e+00
	V(2)                             8.298505e-15
	V(7)                             -2.64534e-15
	cfp1                             -2.64534e-15

	Source	Current
	------	-------

	@gb[i]                           8.369438e-18
	@r7[i]                           8.876953e-19
	@r6[i]                           1.301043e-18
	@r5[i]                           -2.79994e-03
	@r4[i]                           -1.73508e-18
	@r3[i]                           3.896799e-19
	@r2[i]                           -8.36944e-18
	@r1[i]                           7.979758e-18
	vs#branch                        7.979758e-18
	v2#branch                        -2.79994e-03
	vdumb#branch                     1.301043e-18
	hd#branch                        2.799936e-03

 Resistor models (Simple linear resistor)
      model                     R

        rsh                     0
     narrow                     0
      short                     0
        tc1                     0
        tc2                     0
        tce                     0
       defw                 1e-05
          l                 1e-05
         kf                     0
         af                     0
          r                     0
     bv_max                 1e+99
         lf                     1
         wf                     1
         ef                     1

 CCVS: Linear current controlled current source
     device                    hd
          i            0.00279994
          v           1.06581e-14
          p           2.98421e-17

 Resistor: Simple linear resistor
     device                    r7                    r6                    r5
      model                     R                     R                     R
 resistance               1022.17               2033.25               3001.36
         ac               1022.17               2033.25               3001.36
      dtemp                     0                     0                     0
     bv_max                 1e+99                 1e+99                 1e+99
      noisy                     1                     1                     1
          i           8.87695e-19           1.30104e-18           -0.00279994
          p           8.05471e-34            3.4417e-33             0.0235296

 Resistor: Simple linear resistor
     device                    r4                    r3                    r2
      model                     R                     R                     R
 resistance               4095.17               3061.69               2079.23
         ac               4095.17               3061.69               2079.23
      dtemp                     0                     0                     0
     bv_max                 1e+99                 1e+99                 1e+99
      noisy                     1                     1                     1
          i          -1.73508e-18            3.8968e-19          -8.36944e-18
          p           1.23285e-32           4.64918e-34           1.45645e-31

 Resistor: Simple linear resistor
     device                    r1
      model                     R
 resistance               1039.94
         ac               1039.94
      dtemp                     0
     bv_max                 1e+99
      noisy                     1
          i           7.97976e-18
          p           6.62201e-32

 VCCS: Voltage controlled current source
     device                    gb
          m                     0
          i           8.36944e-18
          v               8.40363
          p           7.03337e-17

 Vsource: Independent voltage source
     device                    v2                    vs                 vdumb
         dc               8.40363                     0                     0
      acmag                     0                     0                     0
      pulse         -         -         -
        sin         -         -         -
        exp         -         -         -
        pwl         -         -         -
       sffm         -         -         -
         am         -         -         -
    trnoise         -         -         -
   trrandom         -         -         -
          i           -0.00279994           7.97976e-18           1.30104e-18
          p             0.0235296                    -0                    -0


Total analysis time (seconds) = 0

Total elapsed time (seconds) = 0.002 

Total DRAM available = 15945.082 MB.
DRAM currently available = 6315.352 MB.
Total ngspice program size =   21.855 MB.
Resident set size =    9.934 MB.
Shared ngspice pages =    8.016 MB.
Text (code) pages =    5.070 MB.
Stack = 0 bytes.
Library pages =    2.113 MB.

